* Z:\Documents\workspace\hardware\FlexModules\sensors\ECGADCBuffer\notched\sims\ECGACTNTCHLPBFR.asc
R1 N003 N002 13K tol=1%
R2 N004 N003 13K tol=1%
R3 N007 OUT1 6.8K
C1 N003 OUT1 0.47
C2 N007 N002 0.22
C3 N004 N007 0.22
V1 N001 0 3.3
V2 N002 0 SINE(0 3.3 60)
R4 N005 N004 82k
C4 N004 0 0.0068
C5 OUT1 N005 0.01
R5 N006 N005 27k tol=1%
C7 N006 0 0.001
R6 N001 N006 120k
XU1 N006 OUT1 N001 0 OUT1 TSX561
.lib TSX561.sub
.tran 0 2s 0s .001s
.backanno
.end
